<?xml version="1.0" encoding="UTF-8"?>

<!-- generated on 2025-12-20 12:36:00.785889 by Eclipse SUMO osmWebWizard.py v1_25_0+0000-ac6c5a6752d
<configuration>
    <net-file value="C:\Users\A3sh\2025-12-20-12-35-19\osm.net.xml.gz"/>
    <output-trip-file value="C:\Users\A3sh\2025-12-20-12-35-19\osm.bus.trips.xml"/>
    <route-file value="C:\Users\A3sh\2025-12-20-12-35-19\osm.bus.rou.xml"/>
    <prefix value="bus"/>
    <trip-attributes value="departLane=&quot;best&quot;"/>
    <fringe-start-attributes value="departSpeed=&quot;max&quot;"/>
    <vehicle-class value="bus"/>
    <fringe-factor value="5"/>
    <edge-permission value="bus"/>
    <via-edge-types value="highway.motorway,highway.motorway_link,highway.trunk_link,highway.primary_link,highway.secondary_link,highway.tertiary_link"/>
    <min-distance value="600.0"/>
    <min-distance.fringe value="10.0"/>
    <remove-loops value="True"/>
    <insertion-density value="4.0"/>
</configuration>
-->

<routes xmlns:xsi="http://www.w3.org/2001/XMLSchema-instance" xsi:noNamespaceSchemaLocation="http://sumo.dlr.de/xsd/routes_file.xsd">
    <vType id="bus_bus" vClass="bus"/>
    <trip id="bus0" depart="0.00" from="25683327#0" to="-156195331#0" departLane="best" type="bus_bus" departSpeed="max"/>
    <trip id="bus1" depart="2.22" from="-427107712" to="-426020230" departLane="best" type="bus_bus" departSpeed="max"/>
    <trip id="bus2" depart="4.44" from="422892985" to="27229200#1" departLane="best" type="bus_bus"/>
    <trip id="bus3" depart="6.65" from="542773754" to="-24493181#0" departLane="best" type="bus_bus" departSpeed="max"/>
    <trip id="bus4" depart="8.87" from="-591703443" to="-160457000#0" departLane="best" type="bus_bus" departSpeed="max"/>
    <trip id="bus5" depart="11.09" from="-40886413#10" to="162656267#10" departLane="best" type="bus_bus"/>
    <trip id="bus6" depart="13.31" from="-156193303#8" to="-417100449#0" departLane="best" type="bus_bus"/>
    <trip id="bus7" depart="15.53" from="27229176" to="206104697" departLane="best" type="bus_bus"/>
    <trip id="bus8" depart="17.75" from="-417100436" to="24291817#11" departLane="best" type="bus_bus"/>
    <trip id="bus9" depart="19.96" from="532174094" to="-1171554038#7" departLane="best" type="bus_bus" departSpeed="max"/>
    <trip id="bus10" depart="22.18" from="51078526" to="283562278#3" departLane="best" type="bus_bus"/>
    <trip id="bus11" depart="24.40" from="-532293899#1" to="-27229216#1" departLane="best" type="bus_bus"/>
    <trip id="bus12" depart="26.62" from="593579030" to="-534455583#0" departLane="best" type="bus_bus" departSpeed="max"/>
    <trip id="bus13" depart="28.84" from="52918618" to="37708123#2" departLane="best" type="bus_bus"/>
    <trip id="bus14" depart="31.06" from="206104655#1" to="674289547#1" departLane="best" type="bus_bus"/>
    <trip id="bus15" depart="33.27" from="-566652748" to="207702721" departLane="best" type="bus_bus" departSpeed="max"/>
    <trip id="bus16" depart="35.49" from="532882194" to="24729053#1" departLane="best" type="bus_bus"/>
    <trip id="bus17" depart="37.71" from="534449068#0" to="24257092#0" departLane="best" type="bus_bus" departSpeed="max"/>
    <trip id="bus18" depart="39.93" from="35971274#3" to="-194608187#0" departLane="best" type="bus_bus"/>
    <trip id="bus19" depart="42.15" from="-207702721" to="-427107708#1" departLane="best" type="bus_bus" departSpeed="max"/>
    <trip id="bus20" depart="44.37" from="25523675#1" to="-548121258#0" departLane="best" type="bus_bus"/>
    <trip id="bus21" depart="46.58" from="-565808742" to="-422892984#7" departLane="best" type="bus_bus" departSpeed="max"/>
    <trip id="bus22" depart="48.80" from="-426680175#4" to="569013574#1" departLane="best" type="bus_bus"/>
    <trip id="bus23" depart="51.02" from="27229159#8" to="24554426#1" departLane="best" type="bus_bus"/>
    <trip id="bus24" depart="53.24" from="-27229183#7" to="374931543" departLane="best" type="bus_bus"/>
    <trip id="bus25" depart="55.46" from="-27229154#0" to="-566700044#1" departLane="best" type="bus_bus"/>
    <trip id="bus26" depart="57.68" from="77488874" to="25037690#4" departLane="best" type="bus_bus"/>
    <trip id="bus27" depart="59.89" from="24255009#1" to="27244662#0" departLane="best" type="bus_bus"/>
    <trip id="bus28" depart="62.11" from="533402382#5" to="425463194" departLane="best" type="bus_bus"/>
    <trip id="bus29" depart="64.33" from="-420087170#2" to="-160457007#1" departLane="best" type="bus_bus"/>
    <trip id="bus30" depart="66.55" from="-443471468" to="-44631141" departLane="best" type="bus_bus" departSpeed="max"/>
    <trip id="bus31" depart="68.77" from="-368475233#3" to="58691550#3" departLane="best" type="bus_bus"/>
    <trip id="bus32" depart="70.99" from="534455583#0" to="-534444241" departLane="best" type="bus_bus" departSpeed="max"/>
    <trip id="bus33" depart="73.20" from="27229193#0" to="-589725915" departLane="best" type="bus_bus"/>
    <trip id="bus34" depart="75.42" from="566652746" to="1171554038#4" departLane="best" type="bus_bus"/>
    <trip id="bus35" depart="77.64" from="-426177191#1" to="-43456278" departLane="best" type="bus_bus"/>
    <trip id="bus36" depart="79.86" from="24493412#0" to="547243687" departLane="best" type="bus_bus"/>
    <trip id="bus37" depart="82.08" from="-568988197" to="-425431758#1" departLane="best" type="bus_bus" departSpeed="max"/>
    <trip id="bus38" depart="84.30" from="963995764" to="162975705#0" departLane="best" type="bus_bus"/>
    <trip id="bus39" depart="86.51" from="-24400705#0" to="24963815" departLane="best" type="bus_bus"/>
    <trip id="bus40" depart="88.73" from="44631123" to="-678129405" departLane="best" type="bus_bus"/>
    <trip id="bus41" depart="90.95" from="-202553261" to="-567532989#4" departLane="best" type="bus_bus" departSpeed="max"/>
    <trip id="bus42" depart="93.17" from="96027835#1" to="202285260" departLane="best" type="bus_bus"/>
    <trip id="bus43" depart="95.39" from="678129412#0" to="52918616#1" departLane="best" type="bus_bus" departSpeed="max"/>
    <trip id="bus44" depart="97.61" from="-1188600747#2" to="35971274#9" departLane="best" type="bus_bus" departSpeed="max"/>
    <trip id="bus45" depart="99.82" from="27880365#3" to="202553278#2" departLane="best" type="bus_bus"/>
    <trip id="bus46" depart="102.04" from="-426680175#3" to="25091492#0" departLane="best" type="bus_bus"/>
    <trip id="bus47" depart="104.26" from="-24492822#2" to="-958152926" departLane="best" type="bus_bus"/>
    <trip id="bus48" depart="106.48" from="1094731470#3" to="590643722" departLane="best" type="bus_bus"/>
    <trip id="bus49" depart="108.70" from="534455583#0" to="-44631120#0" departLane="best" type="bus_bus" departSpeed="max"/>
    <trip id="bus50" depart="110.92" from="160456972#7" to="-35439972" departLane="best" type="bus_bus"/>
    <trip id="bus51" depart="113.13" from="565872308#0" to="532293904#0" departLane="best" type="bus_bus" departSpeed="max"/>
    <trip id="bus52" depart="115.35" from="24890582" to="-27229209#3" departLane="best" type="bus_bus" departSpeed="max"/>
    <trip id="bus53" depart="117.57" from="427139594#5" to="206104655#5" departLane="best" type="bus_bus"/>
    <trip id="bus54" depart="119.79" from="43707938#0" to="202285263#1" departLane="best" type="bus_bus"/>
    <trip id="bus55" depart="122.01" from="-1055767318" to="-534449072#0" departLane="best" type="bus_bus" departSpeed="max"/>
    <trip id="bus56" depart="124.23" from="-1410120545#1" to="568327867#1" departLane="best" type="bus_bus" departSpeed="max"/>
    <trip id="bus57" depart="126.44" from="534455587" to="43707973" departLane="best" type="bus_bus" departSpeed="max"/>
    <trip id="bus58" depart="128.66" from="-43707954" to="-206104700#1" departLane="best" type="bus_bus"/>
    <trip id="bus59" depart="130.88" from="534455586" to="588003469" departLane="best" type="bus_bus"/>
    <trip id="bus60" depart="133.10" from="-207742286" to="156193303#2" departLane="best" type="bus_bus" departSpeed="max"/>
    <trip id="bus61" depart="135.32" from="-206104686" to="422897886#2" departLane="best" type="bus_bus"/>
    <trip id="bus62" depart="137.54" from="43217092#1" to="-25522632#0" departLane="best" type="bus_bus"/>
    <trip id="bus63" depart="139.75" from="1229700525#4" to="207702716" departLane="best" type="bus_bus"/>
    <trip id="bus64" depart="141.97" from="-426223140" to="532699839" departLane="best" type="bus_bus"/>
    <trip id="bus65" depart="144.19" from="-591703444" to="-422900169" departLane="best" type="bus_bus" departSpeed="max"/>
    <trip id="bus66" depart="146.41" from="206104694#0" to="37708123#4" departLane="best" type="bus_bus"/>
    <trip id="bus67" depart="148.63" from="-35439979#2" to="-534436305" departLane="best" type="bus_bus" departSpeed="max"/>
    <trip id="bus68" depart="150.85" from="958152925#1" to="25522628#0" departLane="best" type="bus_bus"/>
    <trip id="bus69" depart="153.06" from="-71392260#1" to="193914268#0" departLane="best" type="bus_bus"/>
    <trip id="bus70" depart="155.28" from="-24534061#2" to="-426146825#5" departLane="best" type="bus_bus"/>
    <trip id="bus71" depart="157.50" from="-422889777" to="-425463197" departLane="best" type="bus_bus"/>
    <trip id="bus72" depart="159.72" from="-206104694#1" to="24963904#0" departLane="best" type="bus_bus"/>
    <trip id="bus73" depart="161.94" from="-420087170#2" to="565829847#3" departLane="best" type="bus_bus"/>
    <trip id="bus74" depart="164.16" from="534449066" to="-24291615#3" departLane="best" type="bus_bus" departSpeed="max"/>
    <trip id="bus75" depart="166.37" from="-422894133#5" to="27229183#3" departLane="best" type="bus_bus"/>
    <trip id="bus76" depart="168.59" from="-39653632#1" to="-25683326#0" departLane="best" type="bus_bus"/>
    <trip id="bus77" depart="170.81" from="58706711#0" to="240081391" departLane="best" type="bus_bus"/>
    <trip id="bus78" depart="173.03" from="1218662272#0" to="426160964" departLane="best" type="bus_bus" departSpeed="max"/>
    <trip id="bus79" depart="175.25" from="532174087#0" to="-39270192" departLane="best" type="bus_bus"/>
    <trip id="bus80" depart="177.46" from="-24291596#5" to="-71394432#1" departLane="best" type="bus_bus"/>
    <trip id="bus81" depart="179.68" from="-591703445" to="1218661657" departLane="best" type="bus_bus" departSpeed="max"/>
    <trip id="bus82" depart="181.90" from="420087170#0" to="27229191#2" departLane="best" type="bus_bus"/>
    <trip id="bus83" depart="184.12" from="758179879" to="-24727480#1" departLane="best" type="bus_bus"/>
    <trip id="bus84" depart="186.34" from="-582807273" to="-534455588" departLane="best" type="bus_bus" departSpeed="max"/>
    <trip id="bus85" depart="188.56" from="534449068#0" to="-43707910#0" departLane="best" type="bus_bus" departSpeed="max"/>
    <trip id="bus86" depart="190.77" from="-27880352#4" to="1098307219#1" departLane="best" type="bus_bus" departSpeed="max"/>
    <trip id="bus87" depart="192.99" from="-591703443" to="-532183642" departLane="best" type="bus_bus" departSpeed="max"/>
    <trip id="bus88" depart="195.21" from="-423519697" to="567532989#7" departLane="best" type="bus_bus" departSpeed="max"/>
    <trip id="bus89" depart="197.43" from="-784790424" to="532174085" departLane="best" type="bus_bus" departSpeed="max"/>
    <trip id="bus90" depart="199.65" from="224859351#0" to="-202255085#2" departLane="best" type="bus_bus"/>
    <trip id="bus91" depart="201.87" from="99712735" to="443454475" departLane="best" type="bus_bus" departSpeed="max"/>
    <trip id="bus92" depart="204.08" from="678129410" to="568272520" departLane="best" type="bus_bus" departSpeed="max"/>
    <trip id="bus93" depart="206.30" from="534444231" to="-27880354#2" departLane="best" type="bus_bus" departSpeed="max"/>
    <trip id="bus94" depart="208.52" from="151407219" to="-422900174#8" departLane="best" type="bus_bus"/>
    <trip id="bus95" depart="210.74" from="-569034721" to="-206104702#0" departLane="best" type="bus_bus" departSpeed="max"/>
    <trip id="bus96" depart="212.96" from="-566652748" to="761078787#3" departLane="best" type="bus_bus" departSpeed="max"/>
    <trip id="bus97" depart="215.18" from="1096200707" to="-678129410" departLane="best" type="bus_bus"/>
    <trip id="bus98" depart="217.39" from="59547650" to="958152923#0" departLane="best" type="bus_bus"/>
    <trip id="bus99" depart="219.61" from="24254866#0" to="35971274#12" departLane="best" type="bus_bus"/>
    <trip id="bus100" depart="221.83" from="-25522630" to="-532883862" departLane="best" type="bus_bus"/>
    <trip id="bus101" depart="224.05" from="678129409" to="24257095#16" departLane="best" type="bus_bus"/>
    <trip id="bus102" depart="226.27" from="206104703#0" to="419901084" departLane="best" type="bus_bus"/>
    <trip id="bus103" depart="228.49" from="-200591540#4" to="24291615#5" departLane="best" type="bus_bus"/>
    <trip id="bus104" depart="230.70" from="160456987#2" to="496694788#2" departLane="best" type="bus_bus"/>
    <trip id="bus105" depart="232.92" from="-25523673#0" to="591703447#1" departLane="best" type="bus_bus"/>
    <trip id="bus106" depart="235.14" from="-207702721" to="-35770411" departLane="best" type="bus_bus" departSpeed="max"/>
    <trip id="bus107" depart="237.36" from="24728852#2" to="27229197" departLane="best" type="bus_bus"/>
    <trip id="bus108" depart="239.58" from="-590895679" to="24291615#2" departLane="best" type="bus_bus" departSpeed="max"/>
    <trip id="bus109" depart="241.80" from="193914273#1" to="568954109" departLane="best" type="bus_bus"/>
    <trip id="bus110" depart="244.01" from="-35439983" to="35775939#0" departLane="best" type="bus_bus" departSpeed="max"/>
    <trip id="bus111" depart="246.23" from="-422894135" to="-589729985" departLane="best" type="bus_bus" departSpeed="max"/>
    <trip id="bus112" depart="248.45" from="27244717#1" to="-533369680" departLane="best" type="bus_bus"/>
    <trip id="bus113" depart="250.67" from="-443477886" to="422891414" departLane="best" type="bus_bus" departSpeed="max"/>
    <trip id="bus114" depart="252.89" from="-206104697" to="1171554038#17" departLane="best" type="bus_bus" departSpeed="max"/>
    <trip id="bus115" depart="255.11" from="963995767" to="958152926" departLane="best" type="bus_bus" departSpeed="max"/>
    <trip id="bus116" depart="257.32" from="-206104698" to="-422900174#4" departLane="best" type="bus_bus"/>
    <trip id="bus117" depart="259.54" from="-426223141#0" to="568944102#1" departLane="best" type="bus_bus"/>
    <trip id="bus118" depart="261.76" from="534455590" to="533402382#5" departLane="best" type="bus_bus" departSpeed="max"/>
    <trip id="bus119" depart="263.98" from="-565808738#1" to="-27229223#1" departLane="best" type="bus_bus"/>
    <trip id="bus120" depart="266.20" from="27229185#4" to="-1188600744" departLane="best" type="bus_bus"/>
    <trip id="bus121" depart="268.42" from="27229216#1" to="582807273" departLane="best" type="bus_bus"/>
    <trip id="bus122" depart="270.63" from="-24729180" to="-24963904#1" departLane="best" type="bus_bus"/>
    <trip id="bus123" depart="272.85" from="-24299176#0" to="207702722#1" departLane="best" type="bus_bus"/>
    <trip id="bus124" depart="275.07" from="-427102991#14" to="24493417#2" departLane="best" type="bus_bus"/>
    <trip id="bus125" depart="277.29" from="39653635#1" to="-422889777" departLane="best" type="bus_bus"/>
    <trip id="bus126" depart="279.51" from="25523670#0" to="-44631121#0" departLane="best" type="bus_bus"/>
    <trip id="bus127" depart="281.73" from="151483790#13" to="565829847#2" departLane="best" type="bus_bus"/>
    <trip id="bus128" depart="283.94" from="534436289" to="-24493417#4" departLane="best" type="bus_bus" departSpeed="max"/>
    <trip id="bus129" depart="286.16" from="-591703445" to="-532174089" departLane="best" type="bus_bus" departSpeed="max"/>
    <trip id="bus130" depart="288.38" from="-1067047888#2" to="422903787" departLane="best" type="bus_bus"/>
    <trip id="bus131" depart="290.60" from="25683325#12" to="-44631113#2" departLane="best" type="bus_bus"/>
    <trip id="bus132" depart="292.82" from="422900174#8" to="207702720" departLane="best" type="bus_bus"/>
    <trip id="bus133" depart="295.04" from="-60534324#0" to="-1218662271" departLane="best" type="bus_bus"/>
    <trip id="bus134" depart="297.25" from="-206104702#1" to="534444233" departLane="best" type="bus_bus" departSpeed="max"/>
    <trip id="bus135" depart="299.47" from="548116426" to="206104700#1" departLane="best" type="bus_bus" departSpeed="max"/>
    <trip id="bus136" depart="301.69" from="532885613" to="24291596#1" departLane="best" type="bus_bus" departSpeed="max"/>
    <trip id="bus137" depart="303.91" from="-43707963#1" to="548116424" departLane="best" type="bus_bus"/>
    <trip id="bus138" depart="306.13" from="44631162" to="52918616#1" departLane="best" type="bus_bus" departSpeed="max"/>
    <trip id="bus139" depart="308.35" from="547243685" to="-422894133#0" departLane="best" type="bus_bus"/>
    <trip id="bus140" depart="310.56" from="43707946" to="534449045" departLane="best" type="bus_bus"/>
    <trip id="bus141" depart="312.78" from="-58691550#0" to="24729185#1" departLane="best" type="bus_bus"/>
    <trip id="bus142" depart="315.00" from="-25522629#0" to="568932927#1" departLane="best" type="bus_bus"/>
    <trip id="bus143" depart="317.22" from="534449074" to="71232139#1" departLane="best" type="bus_bus" departSpeed="max"/>
    <trip id="bus144" depart="319.44" from="532183642" to="534436286" departLane="best" type="bus_bus" departSpeed="max"/>
    <trip id="bus145" depart="321.66" from="-151407220#2" to="40886412#6" departLane="best" type="bus_bus"/>
    <trip id="bus146" depart="323.87" from="-51078517" to="568944089#1" departLane="best" type="bus_bus"/>
    <trip id="bus147" depart="326.09" from="51078501" to="532183641#0" departLane="best" type="bus_bus"/>
    <trip id="bus148" depart="328.31" from="532183642" to="-44631135#1" departLane="best" type="bus_bus" departSpeed="max"/>
    <trip id="bus149" depart="330.53" from="534455575" to="51078519" departLane="best" type="bus_bus" departSpeed="max"/>
    <trip id="bus150" depart="332.75" from="-417100449#4" to="43456274#0" departLane="best" type="bus_bus"/>
    <trip id="bus151" depart="334.97" from="1126877120" to="-533402377" departLane="best" type="bus_bus" departSpeed="max"/>
    <trip id="bus152" depart="337.18" from="44631138#2" to="-426680175#4" departLane="best" type="bus_bus"/>
    <trip id="bus153" depart="339.40" from="-151406848" to="-39653637" departLane="best" type="bus_bus" departSpeed="max"/>
    <trip id="bus154" depart="341.62" from="-48459386#2" to="532183644#0" departLane="best" type="bus_bus"/>
    <trip id="bus155" depart="343.84" from="674289547#0" to="-532183646" departLane="best" type="bus_bus" departSpeed="max"/>
    <trip id="bus156" depart="346.06" from="25965893#1" to="-590625720" departLane="best" type="bus_bus"/>
    <trip id="bus157" depart="348.27" from="755492751#0" to="202553277#1" departLane="best" type="bus_bus"/>
    <trip id="bus158" depart="350.49" from="678129411" to="-35439972" departLane="best" type="bus_bus" departSpeed="max"/>
    <trip id="bus159" depart="352.71" from="63676590" to="-44631128#1" departLane="best" type="bus_bus"/>
    <trip id="bus160" depart="354.93" from="-24348407#0" to="-784790781" departLane="best" type="bus_bus"/>
    <trip id="bus161" depart="357.15" from="418874976" to="-534444237" departLane="best" type="bus_bus"/>
    <trip id="bus162" depart="359.37" from="24889765#8" to="167446073#7-AddedOffRampEdge" departLane="best" type="bus_bus"/>
    <trip id="bus163" depart="361.58" from="-566711904#1" to="24256173" departLane="best" type="bus_bus"/>
    <trip id="bus164" depart="363.80" from="-425463198" to="35439979#2" departLane="best" type="bus_bus" departSpeed="max"/>
    <trip id="bus165" depart="366.02" from="-1055767319" to="568246930" departLane="best" type="bus_bus" departSpeed="max"/>
    <trip id="bus166" depart="368.24" from="206104688" to="35971274#18" departLane="best" type="bus_bus"/>
    <trip id="bus167" depart="370.46" from="422900176#1" to="27229184#4" departLane="best" type="bus_bus"/>
    <trip id="bus168" depart="372.68" from="-542773763" to="-24291596#5" departLane="best" type="bus_bus"/>
    <trip id="bus169" depart="374.89" from="27229218#2" to="-534455570#0" departLane="best" type="bus_bus"/>
    <trip id="bus170" depart="377.11" from="-443454475" to="44761404#1" departLane="best" type="bus_bus" departSpeed="max"/>
    <trip id="bus171" depart="379.33" from="40886412#0" to="-533369681#1" departLane="best" type="bus_bus"/>
    <trip id="bus172" depart="381.55" from="-43707973" to="-590652415" departLane="best" type="bus_bus" departSpeed="max"/>
    <trip id="bus173" depart="383.77" from="-582807273" to="-532882201" departLane="best" type="bus_bus" departSpeed="max"/>
    <trip id="bus174" depart="385.99" from="-24728995#2" to="-65423981" departLane="best" type="bus_bus"/>
    <trip id="bus175" depart="388.20" from="590625717" to="27229203#0" departLane="best" type="bus_bus" departSpeed="max"/>
    <trip id="bus176" depart="390.42" from="547706684" to="24729012#0" departLane="best" type="bus_bus" departSpeed="max"/>
    <trip id="bus177" depart="392.64" from="-1055767318" to="-532293914#0" departLane="best" type="bus_bus" departSpeed="max"/>
    <trip id="bus178" depart="394.86" from="-63676582#1" to="24257095#4" departLane="best" type="bus_bus"/>
    <trip id="bus179" depart="397.08" from="27229189" to="1188600747#2" departLane="best" type="bus_bus"/>
    <trip id="bus180" depart="399.30" from="-77488885#3" to="-422900174#8" departLane="best" type="bus_bus" departSpeed="max"/>
    <trip id="bus181" depart="401.51" from="1218662272#0" to="548121258#1" departLane="best" type="bus_bus" departSpeed="max"/>
    <trip id="bus182" depart="403.73" from="44631162" to="-27880359#2" departLane="best" type="bus_bus" departSpeed="max"/>
    <trip id="bus183" depart="405.95" from="-207742282#1" to="184954445#0" departLane="best" type="bus_bus" departSpeed="max"/>
    <trip id="bus184" depart="408.17" from="25522631" to="-534455579#2" departLane="best" type="bus_bus"/>
    <trip id="bus185" depart="410.39" from="532226819" to="422891412#0" departLane="best" type="bus_bus" departSpeed="max"/>
    <trip id="bus186" depart="412.61" from="27799631#2" to="-426146825#5" departLane="best" type="bus_bus"/>
    <trip id="bus187" depart="414.82" from="-35439932" to="-156195327#1" departLane="best" type="bus_bus"/>
    <trip id="bus188" depart="417.04" from="-422900174#6" to="1410120545#1" departLane="best" type="bus_bus"/>
    <trip id="bus189" depart="419.26" from="534444232#4" to="-24291655#0" departLane="best" type="bus_bus"/>
    <trip id="bus190" depart="421.48" from="-590625718" to="24963851#2" departLane="best" type="bus_bus" departSpeed="max"/>
    <trip id="bus191" depart="423.70" from="156195324#1" to="-43456261" departLane="best" type="bus_bus"/>
    <trip id="bus192" depart="425.92" from="27229193#4" to="-1171554038#15" departLane="best" type="bus_bus"/>
    <trip id="bus193" depart="428.13" from="426020229#1" to="422903786#0" departLane="best" type="bus_bus"/>
    <trip id="bus194" depart="430.35" from="-27229195" to="591540373" departLane="best" type="bus_bus"/>
    <trip id="bus195" depart="432.57" from="184954415#2" to="-202255085#0" departLane="best" type="bus_bus"/>
    <trip id="bus196" depart="434.79" from="-422903786#1" to="449165481" departLane="best" type="bus_bus"/>
    <trip id="bus197" depart="437.01" from="1098307219#4" to="43210166#0" departLane="best" type="bus_bus"/>
    <trip id="bus198" depart="439.23" from="27244692" to="771586662#0" departLane="best" type="bus_bus" departSpeed="max"/>
    <trip id="bus199" depart="441.44" from="24728995#1" to="590624291#2" departLane="best" type="bus_bus"/>
    <trip id="bus200" depart="443.66" from="542773753" to="24728852#0" departLane="best" type="bus_bus" departSpeed="max"/>
    <trip id="bus201" depart="445.88" from="40205366#7" to="162656074#2" departLane="best" type="bus_bus"/>
    <trip id="bus202" depart="448.10" from="532882199#0" to="206104703#5" departLane="best" type="bus_bus" departSpeed="max"/>
    <trip id="bus203" depart="450.32" from="-422900179#3" to="25010195#2" departLane="best" type="bus_bus"/>
    <trip id="bus204" depart="452.54" from="43217092#1" to="200568372#0" departLane="best" type="bus_bus"/>
    <trip id="bus205" depart="454.75" from="-207702716" to="-532293908" departLane="best" type="bus_bus" departSpeed="max"/>
    <trip id="bus206" depart="456.97" from="-427102991#1" to="-534449060" departLane="best" type="bus_bus"/>
    <trip id="bus207" depart="459.19" from="206104698" to="-27229158#0" departLane="best" type="bus_bus"/>
    <trip id="bus208" depart="461.41" from="-422891412#2" to="27880358#1" departLane="best" type="bus_bus"/>
    <trip id="bus209" depart="463.63" from="35976995#10" to="-24254866#1" departLane="best" type="bus_bus"/>
    <trip id="bus210" depart="465.85" from="-58706709#1" to="206104694#0" departLane="best" type="bus_bus"/>
    <trip id="bus211" depart="468.06" from="-590635002" to="-422892852#0" departLane="best" type="bus_bus" departSpeed="max"/>
    <trip id="bus212" depart="470.28" from="-590895705" to="565829845" departLane="best" type="bus_bus" departSpeed="max"/>
    <trip id="bus213" depart="472.50" from="24493191#4" to="27880361#0" departLane="best" type="bus_bus"/>
    <trip id="bus214" depart="474.72" from="534449052#1" to="422900174#4" departLane="best" type="bus_bus"/>
    <trip id="bus215" depart="476.94" from="-566652756#1" to="-1171554038#2" departLane="best" type="bus_bus"/>
    <trip id="bus216" depart="479.16" from="-534444237" to="422892852#0" departLane="best" type="bus_bus"/>
    <trip id="bus217" depart="481.37" from="534444243" to="590635005" departLane="best" type="bus_bus" departSpeed="max"/>
    <trip id="bus218" depart="483.59" from="-590895679" to="419901084" departLane="best" type="bus_bus" departSpeed="max"/>
    <trip id="bus219" depart="485.81" from="207742282#0" to="24493413" departLane="best" type="bus_bus"/>
    <trip id="bus220" depart="488.03" from="-417100440#0" to="-425431758#2" departLane="best" type="bus_bus"/>
    <trip id="bus221" depart="490.25" from="-532183644#0" to="27229208#2" departLane="best" type="bus_bus"/>
    <trip id="bus222" depart="492.47" from="-582807291" to="-27880351#3" departLane="best" type="bus_bus" departSpeed="max"/>
    <trip id="bus223" depart="494.68" from="1173008688#0" to="-25522628#5" departLane="best" type="bus_bus"/>
    <trip id="bus224" depart="496.90" from="25037690#6" to="-158878502" departLane="best" type="bus_bus"/>
    <trip id="bus225" depart="499.12" from="-568932937#2" to="223141387" departLane="best" type="bus_bus"/>
    <trip id="bus226" depart="501.34" from="-156195320" to="25091564#1" departLane="best" type="bus_bus"/>
    <trip id="bus227" depart="503.56" from="-24889765#1" to="1173008688#0" departLane="best" type="bus_bus"/>
    <trip id="bus228" depart="505.78" from="-184954438#6" to="-566677437" departLane="best" type="bus_bus"/>
    <trip id="bus229" depart="507.99" from="-37708123#3" to="-534449076" departLane="best" type="bus_bus"/>
    <trip id="bus230" depart="510.21" from="427107708#2" to="-566677437" departLane="best" type="bus_bus"/>
    <trip id="bus231" depart="512.43" from="426024217" to="43707973" departLane="best" type="bus_bus"/>
    <trip id="bus232" depart="514.65" from="-425424942" to="-24348407#2" departLane="best" type="bus_bus"/>
    <trip id="bus233" depart="516.87" from="-1410120545#1" to="206104655#5" departLane="best" type="bus_bus" departSpeed="max"/>
    <trip id="bus234" depart="519.08" from="99712735-AddedOffRampEdge" to="-542769134" departLane="best" type="bus_bus"/>
    <trip id="bus235" depart="521.30" from="27229181#0" to="426024316" departLane="best" type="bus_bus"/>
    <trip id="bus236" depart="523.52" from="27229183#3" to="422892854#2" departLane="best" type="bus_bus"/>
    <trip id="bus237" depart="525.74" from="590643721" to="-417100449#12" departLane="best" type="bus_bus" departSpeed="max"/>
    <trip id="bus238" depart="527.96" from="-1415651336#1" to="-27229209#1" departLane="best" type="bus_bus"/>
    <trip id="bus239" depart="530.18" from="-24727490#3" to="27229183#6" departLane="best" type="bus_bus" departSpeed="max"/>
    <trip id="bus240" depart="532.39" from="24283259#1" to="-425423325#1" departLane="best" type="bus_bus"/>
    <trip id="bus241" depart="534.61" from="35770411" to="422900176#2" departLane="best" type="bus_bus" departSpeed="max"/>
    <trip id="bus242" depart="536.83" from="-27229169#0" to="24534063#1" departLane="best" type="bus_bus"/>
    <trip id="bus243" depart="539.05" from="425463194" to="-24963832#2" departLane="best" type="bus_bus"/>
    <trip id="bus244" depart="541.27" from="532226820#1" to="61605464#0" departLane="best" type="bus_bus"/>
    <trip id="bus245" depart="543.49" from="-24348399#0" to="-157546873" departLane="best" type="bus_bus"/>
    <trip id="bus246" depart="545.70" from="-442834779" to="27229203#0" departLane="best" type="bus_bus"/>
    <trip id="bus247" depart="547.92" from="59720100#6" to="-590625716" departLane="best" type="bus_bus"/>
    <trip id="bus248" depart="550.14" from="38786860" to="-24291817#1" departLane="best" type="bus_bus"/>
    <trip id="bus249" depart="552.36" from="323827126#2" to="24894893#1" departLane="best" type="bus_bus"/>
    <trip id="bus250" depart="554.58" from="-24291773#0" to="423519697" departLane="best" type="bus_bus"/>