<?xml version="1.0" encoding="UTF-8"?>

<!-- generated on 2025-12-20 12:36:51.650672 by Eclipse SUMO osmWebWizard.py v1_25_0+0000-ac6c5a6752d
<configuration>
    <net-file value="C:\Users\A3sh\2025-12-20-12-35-19\osm.net.xml.gz"/>
    <output-trip-file value="C:\Users\A3sh\2025-12-20-12-35-19\osm.passenger.trips.xml"/>
    <route-file value="C:\Users\A3sh\2025-12-20-12-35-19\osm.passenger.rou.xml"/>
    <prefix value="veh"/>
    <trip-attributes value="departLane=&quot;best&quot;"/>
    <fringe-start-attributes value="departSpeed=&quot;max&quot;"/>
    <vehicle-class value="passenger"/>
    <lanes value="True"/>
    <fringe-factor value="5"/>
    <allow-fringe.min-length value="1000.0"/>
    <edge-permission value="passenger"/>
    <via-edge-types value="highway.motorway,highway.motorway_link,highway.trunk_link,highway.primary_link,highway.secondary_link,highway.tertiary_link"/>
    <seed value="43"/>
    <min-distance value="300.0"/>
    <min-distance.fringe value="10.0"/>
    <remove-loops value="True"/>
    <insertion-density value="12.0"/>
</configuration>
-->

<routes xmlns:xsi="http://www.w3.org/2001/XMLSchema-instance" xsi:noNamespaceSchemaLocation="http://sumo.dlr.de/xsd/routes_file.xsd">
    <vType id="veh_passenger" vClass="passenger"/>
    <trip id="veh0" depart="0.00" from="-25683326#1" to="151484277" departLane="best" type="veh_passenger" departSpeed="max"/>
    <trip id="veh1" depart="0.74" from="27880359#0" to="426713075" departLane="best" type="veh_passenger" departSpeed="max"/>
    <trip id="veh2" depart="1.48" from="-131316067#3" to="1183374327" departLane="best" type="veh_passenger"/>
    <trip id="veh3" depart="2.22" from="-591703443" to="51078502#0" departLane="best" type="veh_passenger" departSpeed="max"/>
    <trip id="veh4" depart="2.96" from="23952242#3" to="422891751#0" departLane="best" type="veh_passenger"/>
    <trip id="veh5" depart="3.70" from="1173008688#3" to="-415107341#2" departLane="best" type="veh_passenger"/>
    <trip id="veh6" depart="4.44" from="534449047#0" to="43707935" departLane="best" type="veh_passenger"/>
    <trip id="veh7" depart="5.18" from="-59720100#0" to="-24729035#2" departLane="best" type="veh_passenger"/>
    <trip id="veh8" depart="5.92" from="200568372#0" to="175014022#3" departLane="best" type="veh_passenger"/>
    <trip id="veh9" depart="6.65" from="43456258" to="24493412#0" departLane="best" type="veh_passenger"/>
    <trip id="veh10" depart="7.39" from="193914273#0" to="24257095#16" departLane="best" type="veh_passenger"/>
    <trip id="veh11" depart="8.13" from="-60050674#1" to="-202285268#0" departLane="best" type="veh_passenger"/>
    <trip id="veh12" depart="8.87" from="-202553277#1" to="590635002" departLane="best" type="veh_passenger"/>
    <trip id="veh13" depart="9.61" from="533402382#1" to="-534455577" departLane="best" type="veh_passenger"/>
    <trip id="veh14" depart="10.35" from="547243685" to="202553275#1-AddedOffRampEdge" departLane="best" type="veh_passenger"/>
    <trip id="veh15" depart="11.09" from="-24492888#1" to="51078535" departLane="best" type="veh_passenger"/>
    <trip id="veh16" depart="11.83" from="283562280#2" to="-24729012#4" departLane="best" type="veh_passenger"/>
    <trip id="veh17" depart="12.57" from="25522623#4" to="426146826" departLane="best" type="veh_passenger"/>
    <trip id="veh18" depart="13.31" from="565859270" to="-565872309" departLane="best" type="veh_passenger"/>
    <trip id="veh19" depart="14.05" from="206104698" to="28925238#1" departLane="best" type="veh_passenger"/>
    <trip id="veh20" depart="14.79" from="-27244696#1" to="496694788#4" departLane="best" type="veh_passenger"/>
    <trip id="veh21" depart="15.53" from="43707954" to="-202553279" departLane="best" type="veh_passenger"/>
    <trip id="veh22" depart="16.27" from="24728998#2" to="-60050675" departLane="best" type="veh_passenger"/>
    <trip id="veh23" depart="17.01" from="-35913612" to="24727475#3" departLane="best" type="veh_passenger"/>
    <trip id="veh24" depart="17.75" from="742468633#1" to="224859351#2" departLane="best" type="veh_passenger"/>
    <trip id="veh25" depart="18.49" from="-24727475#2" to="167446073#7" departLane="best" type="veh_passenger"/>
    <trip id="veh26" depart="19.23" from="43707944#0" to="65423980" departLane="best" type="veh_passenger"/>
    <trip id="veh27" depart="19.96" from="36285602#1" to="-193663868#0" departLane="best" type="veh_passenger"/>
    <trip id="veh28" depart="20.70" from="719482779" to="24534069#1" departLane="best" type="veh_passenger"/>
    <trip id="veh29" depart="21.44" from="-24254866#3" to="-27229169#0" departLane="best" type="veh_passenger"/>
    <trip id="veh30" depart="22.18" from="-24255009#9" to="27229193#4" departLane="best" type="veh_passenger"/>
    <trip id="veh31" depart="22.92" from="-27229184#0" to="43217123#0" departLane="best" type="veh_passenger"/>
    <trip id="veh32" depart="23.66" from="-24494642#1" to="207342709#4" departLane="best" type="veh_passenger"/>
    <trip id="veh33" depart="24.40" from="1229700526#0" to="-175014022#3" departLane="best" type="veh_passenger"/>
    <trip id="veh34" depart="25.14" from="-1067047887#2" to="566652747#0" departLane="best" type="veh_passenger"/>
    <trip id="veh35" depart="25.88" from="757834004#2" to="-27229157#1" departLane="best" type="veh_passenger"/>
    <trip id="veh36" depart="26.62" from="422891412#1" to="77488875#1" departLane="best" type="veh_passenger"/>
    <trip id="veh37" depart="27.36" from="566652756#1" to="534455569#2" departLane="best" type="veh_passenger"/>
    <trip id="veh38" depart="28.10" from="-566652763#1" to="35913612" departLane="best" type="veh_passenger"/>
    <trip id="veh39" depart="28.84" from="35971274#11" to="469056508" departLane="best" type="veh_passenger"/>
    <trip id="veh40" depart="29.58" from="534449069" to="-963995764" departLane="best" type="veh_passenger" departSpeed="max"/>
    <trip id="veh41" depart="30.32" from="36007432#4" to="-24729002#0" departLane="best" type="veh_passenger"/>
    <trip id="veh42" depart="31.06" from="-422891414" to="588003469" departLane="best" type="veh_passenger"/>
    <trip id="veh43" depart="31.80" from="1096200707" to="27880343#0" departLane="best" type="veh_passenger"/>
    <trip id="veh44" depart="32.54" from="24348407#4" to="-532882193" departLane="best" type="veh_passenger"/>
    <trip id="veh45" depart="33.27" from="24554425#3" to="566731171" departLane="best" type="veh_passenger"/>
    <trip id="veh46" depart="34.01" from="-565808740" to="-58706718" departLane="best" type="veh_passenger"/>
    <trip id="veh47" depart="34.75" from="-35770412#4" to="-417100449#12" departLane="best" type="veh_passenger"/>
    <trip id="veh48" depart="35.49" from="532882193" to="323999401#2" departLane="best" type="veh_passenger" departSpeed="max"/>
    <trip id="veh49" depart="36.23" from="71394432#2" to="27229208#6" departLane="best" type="veh_passenger"/>
    <trip id="veh50" depart="36.97" from="678129411" to="-43707910#0" departLane="best" type="veh_passenger" departSpeed="max"/>
    <trip id="veh51" depart="37.71" from="-368475233#0" to="-43456254#1" departLane="best" type="veh_passenger"/>
    <trip id="veh52" depart="38.45" from="-678129408" to="77488885#0" departLane="best" type="veh_passenger"/>
    <trip id="veh53" depart="39.19" from="-425392447" to="151483790#18" departLane="best" type="veh_passenger" departSpeed="max"/>
    <trip id="veh54" depart="39.93" from="-202553278#0" to="-157546881#1" departLane="best" type="veh_passenger"/>
    <trip id="veh55" depart="40.67" from="23952242#0" to="24729186#1" departLane="best" type="veh_passenger"/>
    <trip id="veh56" depart="41.41" from="195589147#0" to="567533000" departLane="best" type="veh_passenger"/>
    <trip id="veh57" depart="42.15" from="534449077" to="60050673" departLane="best" type="veh_passenger" departSpeed="max"/>
    <trip id="veh58" depart="42.89" from="24492888#2" to="-532883862" departLane="best" type="veh_passenger"/>
    <trip id="veh59" depart="43.63" from="-25010020#0" to="422900168" departLane="best" type="veh_passenger"/>
    <trip id="veh60" depart="44.37" from="-27229185#1" to="-1171554038#16" departLane="best" type="veh_passenger"/>
    <trip id="veh61" depart="45.11" from="35770412#0" to="-27229157#3" departLane="best" type="veh_passenger"/>
    <trip id="veh62" depart="45.85" from="25522623#2" to="-426146825#3" departLane="best" type="veh_passenger"/>
    <trip id="veh63" depart="46.58" from="1171554038#14" to="-1307432297" departLane="best" type="veh_passenger"/>
    <trip id="veh64" depart="47.32" from="-59720100#3" to="-565859274#0" departLane="best" type="veh_passenger"/>
    <trip id="veh65" depart="48.06" from="-43456273" to="-27229199#0" departLane="best" type="veh_passenger" departSpeed="max"/>
    <trip id="veh66" depart="48.80" from="24348407#4" to="283562278#1" departLane="best" type="veh_passenger"/>
    <trip id="veh67" depart="49.54" from="-418241133" to="-194608187#0" departLane="best" type="veh_passenger" departSpeed="max"/>
    <trip id="veh68" depart="50.28" from="-43707940" to="283562280#7" departLane="best" type="veh_passenger" departSpeed="max"/>
    <trip id="veh69" depart="51.02" from="-43707954" to="25683325#12" departLane="best" type="veh_passenger"/>
    <trip id="veh70" depart="51.76" from="-207702720" to="323827124" departLane="best" type="veh_passenger" departSpeed="max"/>
    <trip id="veh71" depart="52.50" from="-25523674#1" to="-43707937#0" departLane="best" type="veh_passenger"/>
    <trip id="veh72" depart="53.24" from="417100449#12" to="160456975#0" departLane="best" type="veh_passenger"/>
    <trip id="veh73" depart="53.98" from="27229159#9" to="-534449068#0" departLane="best" type="veh_passenger"/>
    <trip id="veh74" depart="54.72" from="27880353" to="-534455585#0" departLane="best" type="veh_passenger"/>
    <trip id="veh75" depart="55.46" from="568318119" to="420087170#1" departLane="best" type="veh_passenger"/>
    <trip id="veh76" depart="56.20" from="23952242#8" to="496488078" departLane="best" type="veh_passenger"/>
    <trip id="veh77" depart="56.94" from="24993658#1" to="35971274#7" departLane="best" type="veh_passenger"/>
    <trip id="veh78" depart="57.68" from="200810087#9" to="24257095#16" departLane="best" type="veh_passenger"/>
    <trip id="veh79" depart="58.42" from="-422897886#2" to="582807275" departLane="best" type="veh_passenger" departSpeed="max"/>
    <trip id="veh80" depart="59.15" from="27229159#1" to="43707915" departLane="best" type="veh_passenger"/>
    <trip id="veh81" depart="59.89" from="24963851#2" to="-156195325" departLane="best" type="veh_passenger"/>
    <trip id="veh82" depart="60.63" from="-24493417#0" to="534449052#3" departLane="best" type="veh_passenger"/>
    <trip id="veh83" depart="61.37" from="35770412#4" to="566652748" departLane="best" type="veh_passenger"/>
    <trip id="veh84" depart="62.11" from="548116427#2" to="-443471466#1" departLane="best" type="veh_passenger"/>
    <trip id="veh85" depart="62.85" from="762353637#1" to="24729035#3" departLane="best" type="veh_passenger"/>
    <trip id="veh86" depart="63.59" from="417100449#4" to="202285263#1" departLane="best" type="veh_passenger"/>
    <trip id="veh87" depart="64.33" from="151430192" to="-534455579#2" departLane="best" type="veh_passenger" departSpeed="max"/>
    <trip id="veh88" depart="65.07" from="-566731166" to="1346355787#1" departLane="best" type="veh_passenger" departSpeed="max"/>
    <trip id="veh89" depart="65.81" from="-43707935" to="-27229212" departLane="best" type="veh_passenger"/>
    <trip id="veh90" depart="66.55" from="51078533" to="-590643720" departLane="best" type="veh_passenger"/>
    <trip id="veh91" depart="67.29" from="-590624291#0" to="426024217" departLane="best" type="veh_passenger"/>
    <trip id="veh92" depart="68.03" from="35770410" to="1355346497#1" departLane="best" type="veh_passenger" departSpeed="max"/>
    <trip id="veh93" depart="68.77" from="-426223141#0" to="156193302" departLane="best" type="veh_passenger"/>
    <trip id="veh94" depart="69.51" from="-591703447#0" to="8110238#9" departLane="best" type="veh_passenger"/>
    <trip id="veh95" depart="70.25" from="-426718936" to="24492822#7" departLane="best" type="veh_passenger" departSpeed="max"/>
    <trip id="veh96" depart="70.99" from="206104684" to="-202285264#1" departLane="best" type="veh_passenger"/>
    <trip id="veh97" depart="71.73" from="-35439982" to="534455573#1" departLane="best" type="veh_passenger" departSpeed="max"/>
    <trip id="veh98" depart="72.46" from="44631115#3" to="-43217094#1" departLane="best" type="veh_passenger"/>
    <trip id="veh99" depart="73.20" from="24727475#4" to="35770412#0" departLane="best" type="veh_passenger"/>
    <trip id="veh100" depart="73.94" from="566711904#1" to="-532882194" departLane="best" type="veh_passenger"/>
    <trip id="veh101" depart="74.68" from="167446073#5" to="567532989#4" departLane="best" type="veh_passenger"/>
    <trip id="veh102" depart="75.42" from="-35952093#2" to="-532293908" departLane="best" type="veh_passenger"/>
    <trip id="veh103" depart="76.16" from="542773753" to="44631136#1" departLane="best" type="veh_passenger" departSpeed="max"/>
    <trip id="veh104" depart="76.90" from="200591540#6" to="-27229198#1" departLane="best" type="veh_passenger"/>
    <trip id="veh105" depart="77.64" from="533367678#1" to="-536970063" departLane="best" type="veh_passenger"/>
    <trip id="veh106" depart="78.38" from="426223141#0" to="-532293908" departLane="best" type="veh_passenger"/>
    <trip id="veh107" depart="79.12" from="-27229184#0" to="283562278#2" departLane="best" type="veh_passenger"/>
    <trip id="veh108" depart="79.86" from="-96027843#1" to="-678129413" departLane="best" type="veh_passenger"/>
    <trip id="veh109" depart="80.60" from="1218662271" to="151483790#20" departLane="best" type="veh_passenger" departSpeed="max"/>
    <trip id="veh110" depart="81.34" from="156193303#2" to="25683325#6" departLane="best" type="veh_passenger"/>
    <trip id="veh111" depart="82.08" from="-24493412#2" to="27244663#2" departLane="best" type="veh_passenger"/>
    <trip id="veh112" depart="82.82" from="160457000#0" to="43707912" departLane="best" type="veh_passenger" departSpeed="max"/>
    <trip id="veh113" depart="83.56" from="-44631135#1" to="27229200#0" departLane="best" type="veh_passenger"/>
    <trip id="veh114" depart="84.30" from="-422891412#1" to="283562280#6" departLane="best" type="veh_passenger"/>
    <trip id="veh115" depart="85.04" from="283562280#4" to="207757337" departLane="best" type="veh_passenger"/>
    <trip id="veh116" depart="85.77" from="160456972#3" to="59720100#3" departLane="best" type="veh_passenger"/>
    <trip id="veh117" depart="86.51" from="-565859268" to="-193914270" departLane="best" type="veh_passenger" departSpeed="max"/>
    <trip id="veh118" depart="87.25" from="547706682" to="44631113#2" departLane="best" type="veh_passenger" departSpeed="max"/>
    <trip id="veh119" depart="87.99" from="-35742477#4" to="24993666" departLane="best" type="veh_passenger"/>
    <trip id="veh120" depart="88.73" from="-422889779" to="51078523" departLane="best" type="veh_passenger"/>
    <trip id="veh121" depart="89.47" from="1098307221#0" to="-207757343#2" departLane="best" type="veh_passenger"/>
    <trip id="veh122" depart="90.21" from="264568128" to="-24493415#0" departLane="best" type="veh_passenger"/>
    <trip id="veh123" depart="90.95" from="548121258#0" to="569034721" departLane="best" type="veh_passenger"/>
    <trip id="veh124" depart="91.69" from="25010410#3" to="-51078521#1" departLane="best" type="veh_passenger"/>
    <trip id="veh125" depart="92.43" from="43456274#0" to="-184954415#4" departLane="best" type="veh_passenger"/>
    <trip id="veh126" depart="93.17" from="-24534069#1" to="-534455594#7" departLane="best" type="veh_passenger"/>
    <trip id="veh127" depart="93.91" from="-207702716" to="533369692" departLane="best" type="veh_passenger" departSpeed="max"/>
    <trip id="veh128" depart="94.65" from="-443453241#4" to="24729002#1" departLane="best" type="veh_passenger"/>
    <trip id="veh129" depart="95.39" from="44631128#1" to="24993658#2" departLane="best" type="veh_passenger"/>
    <trip id="veh130" depart="96.13" from="-542773755#0" to="427139594#1" departLane="best" type="veh_passenger"/>
    <trip id="veh131" depart="96.87" from="1098307219#5" to="24993666" departLane="best" type="veh_passenger"/>
    <trip id="veh132" depart="97.61" from="534444269" to="27229190" departLane="best" type="veh_passenger" departSpeed="max"/>
    <trip id="veh133" depart="98.35" from="151430188#1-AddedOffRampEdge" to="24348407#3" departLane="best" type="veh_passenger"/>
    <trip id="veh134" depart="99.08" from="-420087170#3" to="1229236642" departLane="best" type="veh_passenger"/>
    <trip id="veh135" depart="99.82" from="532885613" to="162046430#1" departLane="best" type="veh_passenger" departSpeed="max"/>
    <trip id="veh136" depart="100.56" from="-1229700525#1" to="43456273" departLane="best" type="veh_passenger"/>
    <trip id="veh137" depart="101.30" from="-27229185#1" to="-162046429#1" departLane="best" type="veh_passenger"/>
    <trip id="veh138" depart="102.04" from="24492888#0" to="422900174#11" departLane="best" type="veh_passenger"/>
    <trip id="veh139" depart="102.78" from="-24727374#2" to="1355346496#2" departLane="best" type="veh_passenger"/>
    <trip id="veh140" depart="103.52" from="151430192" to="-27229153#0" departLane="best" type="veh_passenger" departSpeed="max"/>
    <trip id="veh141" depart="104.26" from="25683325#12" to="-532220668#4" departLane="best" type="veh_passenger"/>
    <trip id="veh142" depart="105.00" from="323999401#3" to="194608194#1" departLane="best" type="veh_passenger"/>
    <trip id="veh143" depart="105.74" from="206104655#0" to="-443471466#0" departLane="best" type="veh_passenger" departSpeed="max"/>
    <trip id="veh144" depart="106.48" from="427102991#9" to="-1218662272#0" departLane="best" type="veh_passenger"/>
    <trip id="veh145" depart="107.22" from="-534449052#3" to="-24889924#0" departLane="best" type="veh_passenger" departSpeed="max"/>
    <trip id="veh146" depart="107.96" from="-24255009#8" to="-1218662272#0" departLane="best" type="veh_passenger"/>
    <trip id="veh147" depart="108.70" from="202555670#0" to="-24291817#7" departLane="best" type="veh_passenger"/>
    <trip id="veh148" depart="109.44" from="-24727490#2" to="1183374327-AddedOnRampEdge" departLane="best" type="veh_passenger"/>
    <trip id="veh149" depart="110.18" from="283562280#3" to="-426223141#0" departLane="best" type="veh_passenger"/>
    <trip id="veh150" depart="110.92" from="588003472" to="43456256#1" departLane="best" type="veh_passenger" departSpeed="max"/>
    <trip id="veh151" depart="111.66" from="8110238#7" to="-590635003" departLane="best" type="veh_passenger"/>
    <trip id="veh152" depart="112.39" from="542773760" to="-547706684" departLane="best" type="veh_passenger" departSpeed="max"/>
    <trip id="veh153" depart="113.13" from="-44631115#3" to="1173008684#0" departLane="best" type="veh_passenger"/>
    <trip id="veh154" depart="113.87" from="-151406639#2" to="35971274#5" departLane="best" type="veh_passenger"/>
    <trip id="veh155" depart="114.61" from="-202285268#1" to="1173008685#1" departLane="best" type="veh_passenger" departSpeed="max"/>
    <trip id="veh156" depart="115.35" from="-43217096#1" to="590895705" departLane="best" type="veh_passenger"/>
    <trip id="veh157" depart="116.09" from="-532183645" to="-590633442" departLane="best" type="veh_passenger"/>
    <trip id="veh158" depart="116.83" from="-533369693" to="-27229158#1" departLane="best" type="veh_passenger"/>
    <trip id="veh159" depart="117.57" from="27229183#8" to="-534455590" departLane="best" type="veh_passenger"/>
    <trip id="veh160" depart="118.31" from="-43707947" to="-542773757#2" departLane="best" type="veh_passenger" departSpeed="max"/>
    <trip id="veh161" depart="119.05" from="-568988197" to="426718936" departLane="best" type="veh_passenger" departSpeed="max"/>
    <trip id="veh162" depart="119.79" from="-422900174#0" to="-27229155" departLane="best" type="veh_passenger"/>
    <trip id="veh163" depart="120.53" from="-565859265" to="24255047#2" departLane="best" type="veh_passenger"/>
    <trip id="veh164" depart="121.27" from="-44631115#0" to="-25091560#0" departLane="best" type="veh_passenger"/>
    <trip id="veh165" depart="122.01" from="-582807291" to="673556577#3" departLane="best" type="veh_passenger" departSpeed="max"/>
    <trip id="veh166" depart="122.75" from="565808740" to="1355346496#3" departLane="best" type="veh_passenger"/>
    <trip id="veh167" depart="123.49" from="1173008688#0" to="-40886412#0" departLane="best" type="veh_passenger"/>
    <trip id="veh168" depart="124.23" from="27880359#0" to="35971274#15" departLane="best" type="veh_passenger" departSpeed="max"/>
    <trip id="veh169" depart="124.96" from="-43456261" to="24993664" departLane="best" type="veh_passenger"/>
    <trip id="veh170" depart="125.70" from="-24492822#2" to="-542773762" departLane="best" type="veh_passenger"/>
    <trip id="veh171" depart="126.44" from="-44631141" to="427102991#16" departLane="best" type="veh_passenger"/>
    <trip id="veh172" depart="127.18" from="25091632#1" to="200810087#6" departLane="best" type="veh_passenger"/>
    <trip id="veh173" depart="127.92" from="1188600744" to="224859351#2" departLane="best" type="veh_passenger" departSpeed="max"/>
    <trip id="veh174" depart="128.66" from="160456972#7" to="-532882178" departLane="best" type="veh_passenger"/>
    <trip id="veh175" depart="129.40" from="532883862" to="427102991#17" departLane="best" type="veh_passenger" departSpeed="max"/>
    <trip id="veh176" depart="130.14" from="-71392260#1" to="1098307219#3" departLane="best" type="veh_passenger"/>
    <trip id="veh177" depart="130.88" from="590624291#4" to="-151407220#3" departLane="best" type="veh_passenger"/>
    <trip id="veh178" depart="131.62" from="43210170#0" to="-37708123#4" departLane="best" type="veh_passenger"/>
    <trip id="veh179" depart="132.36" from="-39653631#0" to="-589729985" departLane="best" type="veh_passenger"/>
    <trip id="veh180" depart="133.10" from="25522626#1" to="-547706682" departLane="best" type="veh_passenger"/>
    <trip id="veh181" depart="133.84" from="200810087#8" to="200810094" departLane="best" type="veh_passenger"/>
    <trip id="veh182" depart="134.58" from="585052226" to="24291581#2" departLane="best" type="veh_passenger"/>
    <trip id="veh183" depart="135.32" from="-43707945#3" to="25037690#6" departLane="best" type="veh_passenger" departSpeed="max"/>
    <trip id="veh184" depart="136.06" from="24255047#5" to="-534455591" departLane="best" type="veh_passenger"/>
    <trip id="veh185" depart="136.80" from="40886413#1" to="-1188600744" departLane="best" type="veh_passenger"/>
    <trip id="veh186" depart="137.54" from="772742266#0" to="533369692" departLane="best" type="veh_passenger"/>
    <trip id="veh187" depart="138.27" from="-202553273" to="35439980#0" departLane="best" type="veh_passenger" departSpeed="max"/>
    <trip id="veh188" depart="139.01" from="-25010020#3" to="77488885#3" departLane="best" type="veh_passenger"/>
    <trip id="veh189" depart="139.75" from="1355346497#1" to="417100449#1" departLane="best" type="veh_passenger"/>
    <trip id="veh190" depart="140.49" from="-43217151" to="27229154#2" departLane="best" type="veh_passenger" departSpeed="max"/>
    <trip id="veh191" depart="141.23" from="-156195324#2" to="427107712" departLane="best" type="veh_passenger"/>
    <trip id="veh192" depart="141.97" from="-43707915" to="-39653636#1" departLane="best" type="veh_passenger" departSpeed="max"/>
    <trip id="veh193" depart="142.71" from="-184954415#4" to="-35952093#0" departLane="best" type="veh_passenger"/>
    <trip id="veh194" depart="143.45" from="-65423985" to="207757337" departLane="best" type="veh_passenger" departSpeed="max"/>
    <trip id="veh195" depart="144.19" from="35770412#5" to="-27229205#2" departLane="best" type="veh_passenger"/>
    <trip id="veh196" depart="144.93" from="532882177" to="-590643721" departLane="best" type="veh_passenger" departSpeed="max"/>
    <trip id="veh197" depart="145.67" from="8110238#5" to="-65423981" departLane="best" type="veh_passenger"/>
    <trip id="veh198" depart="146.41" from="1315076595#2" to="-590643721" departLane="best" type="veh_passenger"/>
    <trip id="veh199" depart="147.15" from="-207757343#0" to="568979688#2" departLane="best" type="veh_passenger"/>
    <trip id="veh200" depart="147.89" from="24728998#2" to="422892853" departLane="best" type="veh_passenger"/>
    <trip id="veh201" depart="148.63" from="-27229184#0" to="162046430#2" departLane="best" type="veh_passenger"/>
    <trip id="veh202" depart="149.37" from="-44631123" to="-533402382#1" departLane="best" type="veh_passenger"/>
    <trip id="veh203" depart="150.11" from="1025081389#1" to="24993664" departLane="best" type="veh_passenger"/>
    <trip id="veh204" depart="150.85" from="151407220#1" to="283562280#5" departLane="best" type="veh_passenger"/>
    <trip id="veh205" depart="151.58" from="77488885#2" to="24348399#0" departLane="best" type="veh_passenger"/>
    <trip id="veh206" depart="152.32" from="496694792#1" to="60050676" departLane="best" type="veh_passenger"/>
    <trip id="veh207" depart="153.06" from="742524938#0" to="-588003472" departLane="best" type="veh_passenger"/>
    <trip id="veh208" depart="153.80" from="533369692" to="283562280#4" departLane="best" type="veh_passenger"/>
    <trip id="veh209" depart="154.54" from="-1346355787#0" to="43707915" departLane="best" type="veh_passenger"/>
    <trip id="veh210" depart="155.28" from="532882193" to="1355346496#3" departLane="best" type="veh_passenger" departSpeed="max"/>
    <trip id="veh211" depart="156.02" from="27229154#3" to="-71394437" departLane="best" type="veh_passenger"/>
    <trip id="veh212" depart="156.76" from="586852295" to="202553278#2" departLane="best" type="veh_passenger" departSpeed="max"/>
    <trip id="veh213" depart="157.50" from="-427102990#1" to="1173008687#2" departLane="best" type="veh_passenger" departSpeed="max"/>
    <trip id="veh214" depart="158.24" from="24554426#1" to="-678129413" departLane="best" type="veh_passenger"/>
    <trip id="veh215" depart="158.98" from="-565829845" to="25010020#2" departLane="best" type="veh_passenger"/>
    <trip id="veh216" depart="159.72" from="-534455583#1" to="162656074#2" departLane="best" type="veh_passenger"/>
    <trip id="veh217" depart="160.46" from="-24254866#4" to="-547706677" departLane="best" type="veh_passenger"/>
    <trip id="veh218" depart="161.20" from="-24727480#0" to="160457007#3" departLane="best" type="veh_passenger"/>
    <trip id="veh219" depart="161.94" from="-565808742" to="-686388172#1" departLane="best" type="veh_passenger" departSpeed="max"/>
    <trip id="veh220" depart="162.68" from="-157546874" to="77488885#1" departLane="best" type="veh_passenger"/>
    <trip id="veh221" depart="163.42" from="-422894133#0" to="-1218662271" departLane="best" type="veh_passenger"/>
    <trip id="veh222" depart="164.16" from="24291817#3" to="567532989#1" departLane="best" type="veh_passenger"/>
    <trip id="veh223" depart="164.89" from="-202285264#1" to="160456972#7" departLane="best" type="veh_passenger"/>
    <trip id="veh224" depart="165.63" from="533369684#0" to="-44631136#0" departLane="best" type="veh_passenger" departSpeed="max"/>
    <trip id="veh225" depart="166.37" from="-25010195#4" to="-207702733" departLane="best" type="veh_passenger"/>
    <trip id="veh226" depart="167.11" from="35440277#0" to="422897888" departLane="best" type="veh_passenger"/>
    <trip id="veh227" depart="167.85" from="1171554038#5" to="-588003472" departLane="best" type="veh_passenger"/>
    <trip id="veh228" depart="168.59" from="762353617#1" to="-532183646" departLane="best" type="veh_passenger"/>
    <trip id="veh229" depart="169.33" from="496694792#3" to="43217124#2" departLane="best" type="veh_passenger"/>
    <trip id="veh230" depart="170.07" from="1355346497#3" to="426024316" departLane="best" type="veh_passenger"/>
    <trip id="veh231" depart="170.81" from="422900175#1" to="24963941#1" departLane="best" type="veh_passenger"/>
    <trip id="veh232" depart="171.55" from="533402382#4" to="27244662#2" departLane="best" type="veh_passenger"/>
    <trip id="veh233" depart="172.29" from="534455575" to="-590625720" departLane="best" type="veh_passenger" departSpeed="max"/>
    <trip id="veh234" depart="173.03" from="-591703448" to="590895705" departLane="best" type="veh_passenger" departSpeed="max"/>
    <trip id="veh235" depart="173.77" from="1176917240" to="-542773755#3" departLane="best" type="veh_passenger" departSpeed="max"/>
    <trip id="veh236" depart="174.51" from="532174093#5" to="-590625719" departLane="best" type="veh_passenger"/>
    <trip id="veh237" depart="175.25" from="-24291581#0" to="44631135#2" departLane="best" type="veh_passenger"/>
    <trip id="veh238" depart="175.99" from="24993662" to="-200591540#5" departLane="best" type="veh_passenger" departSpeed="max"/>
    <trip id="veh239" depart="176.73" from="-24291773#2" to="-534455572" departLane="best" type="veh_passenger"/>
    <trip id="veh240" depart="177.46" from="1173008684#1" to="427258012" departLane="best" type="veh_passenger"/>
    <trip id="veh241" depart="178.20" from="506580639" to="40205366#6" departLane="best" type="veh_passenger"/>
    <trip id="veh242" depart="178.94" from="417100449#9" to="200810094" departLane="best" type="veh_passenger"/>